CM Terminated folded monopole
CE
GW  1  1   0.00000   0.00000   0.00000   0.00000   0.00000   0.05000  0.00100
GW  2  20  0.00000   0.00000   0.05000   0.00000   0.00000  17.00000  0.00100
GW  3  10  0.00000   0.00000  17.00000   0.50000   0.00000  17.00000  0.00100
GW  4  20  0.50000   0.00000   0.05000   0.50000   0.00000  17.00000  0.00100
GW  5  1   0.50000   0.00000   0.00000   0.50000   0.00000   0.05000  0.00100
GE  1
LD  0  5    1    1  800        0         0
GN  1  0    0    0  0.00E+00  0.00E+00  0.00E+00  0.00E+00  0.00E+00  0.00E+00
FR  0  1    0    0  18.1      0.00E+00  0.00E+00  0.00E+00  0.00E+00  0.00E+00
EX  0  1    1    0  1.00E+00  0.00E+00  0.00E+00  0.00E+00  0.00E+00  0.00E+00
RP  0  37  72  1000  0.00E+00  0.00E+00  5.00E+00  5.0E+02  0.00E+00  0.00E+00
EN

